data_structure0000
_audit_creation_method         'generated by CrystalMaker 9.1.4'
_publ_section_comment
;
(Imported from a Crystallographic Information File (CIF) file.)


;
_cell_length_a                   2.8582(0)
_cell_length_b                   2.8582(0)
_cell_length_c                   6.9204(0)
_cell_angle_alpha               90.0000(0)
_cell_angle_beta                90.0000(0)
_cell_angle_gamma              120.0000(0)

_symmetry_space_group_name_H-M     'P 1'
_symmetry_Int_Tables_number         1
_symmetry_cell_setting             triclinic
loop_
_symmetry_equiv_pos_as_xyz
'+x,+y,+z'

loop_
_atom_site_label
_atom_site_type_symbol
_atom_site_occupancy
_atom_site_fract_x
_atom_site_fract_y
_atom_site_fract_z
_atom_site_B_iso_or_equiv
   Mn1    Mn 0.8598      0.0000    0.0000    0.5000    0.2563
   Mn2    Mn 0.0701      0.0000    0.0000    0.7829    0.2728
   Mn3    Mn 0.0701      0.0000    0.0000    0.2171    0.2728
    O1     O 1.0000      0.6667    0.3333    0.6594    0.6375
    O2     O 1.0000      0.3333    0.6667    0.3406    0.6375
    O3     O 0.2103      0.3333    0.6667    0.9183    0.5037
    O4     O 0.2103      0.6667    0.3333    0.0817    0.5037

